&NUMERICS
time_flux = 3  ! length of flux corrections run [yrs]
time_ctrl = 3  ! length of control run [yrs
time_scnr = 50 ! length of scenariorun [yrs
/
&PHYSICS
 log_exp = 10 ! complete GREB model; 2xCO2 forcing
/
